powerflow/autotest/test_unbalanced_stepup_grY-grY.glm
// $id$
//	Copyright (C) 2008 Battelle Memorial Institute

// 4 Node Feeder: Unbalanced step-up grY-grY

clock {
	timestamp '2000-01-01 0:00:00';
	timezone EST+5EDT;
}

//#define stylesheet="C:\Users\Jason\Documents\GridLAB-D\trunk\VS2005\gridlabd-2_0";
#set relax_naming_rules=1
module powerflow;
module assert;

object overhead_line_conductor:100 {
	geometric_mean_radius 0.0244;
	resistance 0.306;
}

object overhead_line_conductor:101 {
	geometric_mean_radius 0.00814;
	resistance 0.592;
}

object line_spacing:200 {
	distance_AB 2.5;
	distance_BC 4.5;
	distance_AC 7.0;
	distance_AN 5.656854;
	distance_BN 4.272002;
	distance_CN 5.0;
}

object line_configuration:300 {
	conductor_A overhead_line_conductor:100;
	conductor_B overhead_line_conductor:100;
	conductor_C overhead_line_conductor:100;
	conductor_N overhead_line_conductor:101;
	spacing line_spacing:200;
}

object transformer_configuration:400 {
	connect_type WYE_WYE;
	power_rating 6000;
	primary_voltage 12470;
	secondary_voltage 24900;
	resistance 0.01;
	reactance 0.06;
}

object node:1 {
	phases "ABCN";
	voltage_A +7199.558+0.000j;
	voltage_B -3599.779-6235.000j;
	voltage_C -3599.779+6235.000j;
	nominal_voltage 7199.558;
}

object overhead_line:12 {
	phases "ABCN";
	from node:1;
	to node:2;
	length 2000;
	configuration line_configuration:300;
	object complex_assert {
		target current_in_A;
		within 10;
		value 216.8-34.0d;
	};
	object complex_assert {
		target current_in_B;
		within 10;
		value 293.3-149.2d;
	};
	object complex_assert {
		target current_in_C;
		within 10;
		value 366.7+96.7d;
	};
}

object node:2 {
	phases "ABCN";
	voltage_A +7199.558+0.000j;
	voltage_B -3599.779-6235.000j;
	voltage_C -3599.779+6235.000j;
	nominal_voltage 7199.558;
	object complex_assert {
		target voltage_A;
		within 6;
		value 7161-.1d;
	};
	object complex_assert {
		target voltage_B;
		within 6;
		value 7120-120.3d;
	};
	object complex_assert {
		target voltage_C;
		within 6;
		value 7128+119.3d;
	};
}

object transformer:23 {
	phases "ABCN";
	from node:2;
	to node:3;
	configuration transformer_configuration:400;
}

object node:3 {
	phases "ABCN";
	voltage_A +14376.022+0.000j;
	voltage_B -7188.011-12450.000j;
	voltage_C -7188.011+12450.000j;
	nominal_voltage 14376.022;
	object complex_assert {
		target voltage_A;
		within 10;
		value 13839-2.1d;
	};
	object complex_assert {
		target voltage_B;
		within 10;
		value 13663-123.3d;
	};
	object complex_assert {
		target voltage_C;
		within 10;
		value 13655+115.1d;
	};
}

object overhead_line:34 {
	phases "ABCN";
	from node:3;
	to load:4;
	length 2500;
	configuration line_configuration:300;
	object complex_assert {
		target current_in_A;
		within 10;
		value 108.6-34.0d;
	};
	object complex_assert {
		target current_in_B;
		within 10;
		value 147.0-149.2d;
	};
	object complex_assert {
		target current_in_C;
		within 10;
		value 183.6+96.7d;
	};
}

object load:4 {
	phases "ABCN";
	voltage_A +14376.022+0.000j;
	voltage_B -7188.011-12450.000j;
	voltage_C -7188.011+12450.000j;
	constant_power_A +1275000.000+790174.031j;
	constant_power_B +1800000.000+871779.789j;
	constant_power_C +2375000.000+780624.750j;
	nominal_voltage 14376.022;
	object complex_assert {
		target voltage_A;
		within 10;
		value 13815-2.2d;
	};
	object complex_assert {
		target voltage_B;
		within 10;
		value 13614-123.4d;
	};
	object complex_assert {
		target voltage_C;
		within 10;
		value 13615+114.9d;
	};
}

